[General]
network = A3.P2PChordNetwork
sim-time-limit = 100s
seed-set = 0
**.constraint = xmldoc("P2PChordNetwork.xml")

[Config Basic]
description = Basic test configuration
**.numClients = 8
**.numSubtasks = 4

[Config Large]
description = Larger network test
**.numClients = 32
**.numSubtasks = 16
